! wB97X-D3BJ Opt def2-TZVP Freq

%pal nprocs 16 end

%GEOM
	MaxIter 1000
END

* xyz 0 1
C         -4.10689        2.11722       -0.09276
C         -4.05017        0.47646       -0.08615
H         -4.86137        2.81688        0.44285
H         -3.31169        2.86748       -0.44500
H         -4.75920       -0.28468        0.44324
H         -3.20973       -0.23329       -0.44554
Co        -3.10476        1.33876        1.94442
H         -3.53300        3.00084        1.90248
C         -2.79494       -0.55471        1.62269
C         -1.33898        1.64962        1.88616
C         -4.37833        0.40876        2.85320
O         -5.22456       -0.22414        3.56981
O         -0.01978        1.70049        1.93036
O         -2.81770       -1.82560        1.48099
*