! wB97X-D3BJ Opt def2-TZVP

%pal nprocs 16 end

%geom Scan B 0 8 = 2.366, 1.160, 24 end end

*xyz 0 1
  C   -4.08982323118294      1.96871329179741      0.07743628602155
  C   -4.00397728953098      0.65640974500981     -0.26675647833470
  H   -5.00489297327859      2.37991239812968      0.48474694366044
  H   -3.34272821052510      2.68173650482169     -0.24844607434930
  H   -4.84736138210672     -0.01086763506189     -0.13524832787103
  H   -3.18420811750566      0.29263288497183     -0.87473630138501
  Co  -3.12859461923499      0.89274190201056      1.80709114705967
  H   -3.32451835243006      2.29061164743925      2.26064339806065
  C   -2.70096766924152     -0.83594836579775      1.67312068710330
  C   -1.47724045086903      1.52792064320073      1.81666417136944
  C   -4.39068829347482      0.71301787935936      3.03818403816222
  O   -5.16600387487222      0.65525341613481      3.87049934987173
  O   -0.43264823242002      1.97755159217792      1.88537692737722
  O   -2.41744730332726     -1.93559590419343      1.61817423325381
*